3
Properties=species:S:1:pos:R:3:energies:R:1:forces:R:3 energy=2.6198114833697375 free_energy=2.6198114833697375 pbc="F F F"
O        0.00000000       0.00000000       0.11926200       0.02034787       0.00000000       0.00000000       7.73836531
H        0.00000000       0.76323900      -0.47704700       1.29973180       0.00000000       5.14779422      -3.86918266
H        0.00000000      -0.76323900      -0.47704700       1.29973180       0.00000000      -5.14779422      -3.86918266
